REMARK  10 active torsions:
REMARK  status: ('A' for Active; 'I' for Inactive)
REMARK    1  A    between atoms: N01_1  and  C02_2 
REMARK    2  A    between atoms: C02_2  and  C03_3 
REMARK    3  A    between atoms: C03_3  and  C22_19 
REMARK    4  A    between atoms: C03_3  and  N04_4 
REMARK    5  A    between atoms: N04_4  and  C05_5 
REMARK    6  A    between atoms: C05_5  and  C07_7 
REMARK    7  A    between atoms: C10_10  and  C12_12 
REMARK    8  A    between atoms: C15_15  and  C18_18 
REMARK    9  A    between atoms: C25_22  and  C26_23 
REMARK   10  A    between atoms: C26_23  and  O27_24 
ROOT
ATOM      1  C05 XKW A 507      -0.593 -16.981  11.391  1.00  0.00     0.268 C 
ATOM      2  O06 XKW A 507       0.356 -16.271  11.715  1.00  0.00    -0.266 OA
ENDROOT
BRANCH   1   3
ATOM      3  N04 XKW A 507      -0.340 -17.996  10.420  1.00  0.00    -0.343 N 
ATOM      4 1H04 XKW A 507      -0.971 -18.521  10.164  1.00  0.00     0.163 HD
BRANCH   3   5
ATOM      5  C03 XKW A 507       0.949 -18.258   9.774  1.00  0.00     0.172 C 
BRANCH   5   6
ATOM      6  C02 XKW A 507       1.270 -19.775   9.478  1.00  0.00     0.298 C 
BRANCH   6   7
ATOM      7  N01 XKW A 507       1.780 -20.573  10.635  1.00  0.00     0.080 N 
ATOM      8 1H01 XKW A 507       2.673 -20.654  10.638  1.00  0.00     0.312 HD
ATOM      9  H1  XKW A 507       1.543 -20.283  11.446  1.00  0.00     0.312 HD
ENDBRANCH   6   7
ENDBRANCH   5   6
BRANCH   5  10
ATOM     10  C22 XKW A 507       1.206 -17.544   8.395  1.00  0.00     0.099 A 
ATOM     11  N23 XKW A 507       1.332 -18.014   7.173  1.00  0.00    -0.255 NA
ATOM     12  C24 XKW A 507       1.531 -16.949   6.236  1.00  0.00     0.134 A 
ATOM     13  C25 XKW A 507       1.529 -15.657   6.703  1.00  0.00     0.025 A 
ATOM     14  S28 XKW A 507       1.317 -15.778   8.428  1.00  0.00    -0.074 SA
BRANCH  13  15
ATOM     15  C26 XKW A 507       1.757 -14.296   6.051  1.00  0.00     0.211 C 
BRANCH  15  16
ATOM     16  O27 XKW A 507       3.069 -13.912   6.237  1.00  0.00    -0.396 OA
ATOM     17 1H27 XKW A 507       3.244 -13.985   7.064  1.00  0.00     0.209 HD
ENDBRANCH  15  16
ENDBRANCH  13  15
ENDBRANCH   5  10
ENDBRANCH   3   5
ENDBRANCH   1   3
BRANCH   1  18
ATOM     18  C07 XKW A 507      -1.953 -16.754  12.067  1.00  0.00     0.101 A 
ATOM     19  C08 XKW A 507      -3.220 -16.704  11.500  1.00  0.00     0.037 A 
ATOM     20  C09 XKW A 507      -4.197 -16.488  12.530  1.00  0.00     0.034 A 
ATOM     21  C10 XKW A 507      -3.558 -16.429  13.779  1.00  0.00     0.061 A 
ATOM     22  N11 XKW A 507      -2.185 -16.595  13.471  1.00  0.00    -0.350 N 
ATOM     23 1H11 XKW A 507      -1.564 -16.599  14.066  1.00  0.00     0.166 HD
BRANCH  21  24
ATOM     24  C12 XKW A 507      -4.184 -16.202  15.165  1.00  0.00     0.083 A 
ATOM     25  C13 XKW A 507      -5.571 -16.005  15.353  1.00  0.00     0.035 A 
ATOM     26  C14 XKW A 507      -6.130 -15.781  16.610  1.00  0.00     0.020 A 
ATOM     27  C15 XKW A 507      -5.330 -15.730  17.746  1.00  0.00     0.065 A 
ATOM     28  C16 XKW A 507      -3.960 -15.935  17.529  1.00  0.00     0.133 A 
ATOM     29  N17 XKW A 507      -3.388 -16.157  16.306  1.00  0.00    -0.258 NA
BRANCH  27  30
ATOM     30  C18 XKW A 507      -5.897 -15.481  19.136  1.00  0.00     0.418 C 
ATOM     31  F21 XKW A 507      -7.232 -15.383  19.137  1.00  0.00    -0.166 F 
ATOM     32  F19 XKW A 507      -5.463 -14.347  19.705  1.00  0.00    -0.166 F 
ATOM     33  F20 XKW A 507      -5.602 -16.451  20.012  1.00  0.00    -0.166 F 
ENDBRANCH  27  30
ENDBRANCH  21  24
ENDBRANCH   1  18
TORSDOF 9
